Circuit: * C:\Users\guill\Desktop\Ampli\simulation\stereo-to-mono\Stereo-to-Mono.asc

Direct Newton iteration for .op point succeeded.

Date: Thu Nov 21 22:26:21 2024
Total elapsed time: 0.225 seconds.

tnom = 27
temp = 27
method = modified trap
totiter = 2176
traniter = 2158
tranpoints = 1080
accept = 1052
rejected = 28
matrix size = 18
fillins = 1
solver = Normal
Matrix Compiler1: 584 bytes object code size  0.2/0.1/[0.1]
Matrix Compiler2: 1.19 KB object code size  0.1/0.3/[0.1]

