Circuit: * C:\Users\guill\Desktop\Ampli\simulation\Filtrage\Subwoofer_filter.asc

Direct Newton iteration failed to find .op point.  (Use ".option noopiter" to skip.)
Starting Gmin stepping
Gmin = 10
Gmin = 1.07374
vernier = 0.5
vernier = 0.25
vernier = 0.125
vernier = 0.0625
Gmin = 1.08884
vernier = 0.03125
vernier = 0.015625
Gmin = 1.03122
vernier = 0.0078125
vernier = 0.00390625
Gmin = 1.01823
vernier = 0.00520833
vernier = 0.00260417
Gmin = 1.01162
vernier = 0.00347222
vernier = 0.00173611
vernier = 0.00231481
vernier = 0.00115741
Gmin = 1.00877
vernier = 0.00154321
vernier = 0.000771604
Gmin = 1.00673
vernier = 0.00102881
vernier = 0.000514403
vernier = 0.00068587
Gmin = 1.00553
vernier = 0.000514403
vernier = 0.00068587
vernier = 0.000514402
Gmin = 1.00475
Gmin = 0
Gmin stepping failed

Starting source stepping with srcstepmethod=0
Source Step = 3.0303%
Source Step = 18.2765%
Source Step = 18.75%
Source Step = 19.2235%
Source Step = 19.697%
Source Step = 20.1705%
vernier = 0.0234375
Source Step = 20.6676%
Source Step = 21.3778%
Source Step = 22.0881%
Source Step = 22.4565%
Source Step = 22.5009%
Source Step = 22.5453%
Source Step = 22.5897%
Source Step = 22.6341%
vernier = 0.00219727
Source Step = 22.6829%
Source Step = 22.7495%
Source Step = 22.8161%
Source Step = 22.8826%
Source Step = 22.9492%
vernier = 0.0032959
Source Step = 23.0191%
Source Step = 23.119%
Source Step = 23.2189%
Source Step = 23.3188%
Source Step = 23.4186%
Source Step = 23.5185%
vernier = 0.00494385
Source Step = 23.6683%
Source Step = 23.8181%
Source Step = 23.968%
Source Step = 24.1178%
Source Step = 24.1627%
Source Step = 24.2002%
Source Step = 24.2376%
Source Step = 24.2751%
Source Step = 24.3125%
vernier = 0.00185394
Source Step = 24.3631%
Source Step = 24.4193%
Source Step = 24.4754%
Source Step = 24.5316%
Source Step = 24.5878%
vernier = 0.00278091
Source Step = 24.6608%
Source Step = 24.7451%
Source Step = 24.8294%
Source Step = 24.9136%
Source Step = 24.9979%
vernier = 0.00417137
Source Step = 25.0527%
Source Step = 25.0843%
Source Step = 25.1159%
Source Step = 25.1475%
Source Step = 25.1791%
vernier = 0.00156426
Source Step = 25.2154%
Source Step = 25.2628%
Source Step = 25.3102%
Source Step = 25.3576%
Source Step = 25.405%
vernier = 0.0023464
Source Step = 25.4572%
Source Step = 25.5283%
Source Step = 25.5994%
Source Step = 25.6705%
Source Step = 25.7416%
Source Step = 25.8127%
Source Step = 25.8838%
Source Step = 25.9549%
vernier = 0.00351959
Source Step = 26.0331%
Source Step = 26.1398%
Source Step = 26.2464%
Source Step = 26.3531%
Source Step = 26.4597%
vernier = 0.00527939
Source Step = 26.5717%
Source Step = 26.7317%
Source Step = 26.8917%
Source Step = 27.0517%
Source Step = 27.2117%
Source Step = 27.3716%
vernier = 0.00791909
Source Step = 27.6116%
Source Step = 27.8516%
Source Step = 28.0916%
Source Step = 28.3315%
Source Step = 28.5715%
vernier = 0.0118786
Source Step = 28.9195%
Source Step = 29.2794%
Source Step = 29.6394%
Source Step = 29.9993%
Source Step = 30.3593%
vernier = 0.0178179
Source Step = 30.8632%
Source Step = 31.4032%
Source Step = 31.9431%
Source Step = 32.483%
Source Step = 33.023%
vernier = 0.0267269
Source Step = 33.7519%
Source Step = 34.5618%
Source Step = 35.3717%
Source Step = 36.1816%
Source Step = 36.9915%
vernier = 0.0400904
Source Step = 38.0444%
Source Step = 39.2593%
Source Step = 40.4741%
Source Step = 41.689%
Source Step = 42.9038%
vernier = 0.0601356
Source Step = 44.4224%
Source Step = 46.2447%
Source Step = 48.067%
Source Step = 49.8893%
Source Step = 51.7116%
vernier = 0.0902034
Source Step = 53.8983%
Source Step = 56.6318%
Source Step = 59.3652%
Source Step = 62.0986%
Source Step = 64.8321%
vernier = 0.135305
Source Step = 67.9755%
Source Step = 72.0757%
Source Step = 76.1758%
Source Step = 80.276%
Source Step = 84.3761%
vernier = 0.202958
Source Step = 88.8863%
Source Step = 95.0365%
Source Step = 100%
Source stepping succeeded in finding the operating point.


Date: Tue Nov 19 09:53:22 2024
Total elapsed time: 7.337 seconds.

tnom = 27
temp = 27
method = trap
totiter = 10442
traniter = 0
tranpoints = 0
accept = 0
rejected = 0
matrix size = 313
fillins = 718
solver = Normal
Matrix Compiler1:    3721 opcodes
Matrix Compiler2: 51.47 KB object code size  5.9/6.0/[3.1]

