Circuit: * C:\Users\guill\Desktop\enceinte_audio_4_voies_equaliseur\four_ways_equalizer_speaker\Simulation\Ltpsice\Switch\Draft1.asc

Direct Newton iteration for .op point succeeded.

Date: Tue Nov 26 16:07:55 2024
Total elapsed time: 0.109 seconds.

tnom = 27
temp = 27
method = modified trap
totiter = 8089
traniter = 8084
tranpoints = 2896
accept = 2464
rejected = 432
matrix size = 24
fillins = 12
solver = Normal
Matrix Compiler1: 1.85 KB object code size  0.4/0.2/[0.2]
Matrix Compiler2: 2.03 KB object code size  0.2/0.4/[0.2]

