Circuit: * C:\Users\guill\Desktop\Ampli\simulation\Amplificateur\Switch_filtre.asc

Limiting rise time of source v5 to 5e-006
Limiting fall time of source v5 to 5e-006
Limiting rise time of source v1 to 5e-006
Limiting fall time of source v1 to 5e-006
Direct Newton iteration for .op point succeeded.

Date: Wed Nov 20 16:00:18 2024
Total elapsed time: 0.257 seconds.

tnom = 27
temp = 27
method = modified trap
totiter = 16571
traniter = 16561
tranpoints = 6561
accept = 5111
rejected = 1450
matrix size = 32
fillins = 16
solver = Normal
Matrix Compiler1: 2.46 KB object code size  0.9/0.6/[0.4]
Matrix Compiler2: 3.00 KB object code size  0.5/0.9/[0.4]

