Circuit: * C:\Users\guill\Desktop\Ampli\simulation\Switch\Switch.asc

Limiting rise time of source v1 to 5e-005
Limiting fall time of source v1 to 5e-005
Direct Newton iteration for .op point succeeded.

Date: Thu Nov 21 09:57:41 2024
Total elapsed time: 0.223 seconds.

tnom = 27
temp = 27
method = modified trap
totiter = 5061
traniter = 5050
tranpoints = 1825
accept = 1420
rejected = 405
matrix size = 36
fillins = 25
solver = Normal
Matrix Compiler1: 3.17 KB object code size  0.7/0.3/[0.3]
Matrix Compiler2: 3.78 KB object code size  0.4/0.6/[0.4]

